data_NO_RECURSION  [CUB,CUB,cP16] (STD_CONV doi:10.1016/j.commatsci.2010.05.010)
_pd_phase_name NO_RECURSION  [CUB,CUB,cP16] (STD_CONV doi:10.1016/j.commatsci.2010.05.010)
_cell_length_a  6.2337341714
_cell_length_b  6.2337341714
_cell_length_c  6.2337341714
_cell_angle_alpha  90.0000000000
_cell_angle_beta  90.0000000000
_cell_angle_gamma  90.0000000000
_symmetry_space_group_name_H-M  'P1'
_symmetry_Int_Tables_Number  1
loop_
_symmetry_equiv_pos_site_id
_symmetry_equiv_pos_as_xyz_
  1  x,y,z
loop_
 _atom_site_label
 _atom_site_occupancy
 _atom_site_fract_x
 _atom_site_fract_y
 _atom_site_fract_z
 _atom_site_thermal_displace_type
 _atom_site_B_iso_or_equiv
 _atom_site_type_symbol
Fe1 1.0 0.2500000000 0.2500000000 0.2500000000  Biso 1.0 Fe
Fe2 1.0 0.7500000000 0.7500000000 0.2500000000  Biso 1.0 Fe
Fe3 1.0 0.7500000000 0.2500000000 0.7500000000  Biso 1.0 Fe
Fe4 1.0 0.2500000000 0.7500000000 0.7500000000  Biso 1.0 Fe
Fe5 1.0 0.7500000000 0.2500000000 0.2500000000  Biso 1.0 Fe
Fe6 1.0 0.2500000000 0.7500000000 0.2500000000  Biso 1.0 Fe
Fe7 1.0 0.2500000000 0.2500000000 0.7500000000  Biso 1.0 Fe
Fe8 1.0 0.7500000000 0.7500000000 0.7500000000  Biso 1.0 Fe
Ge9 1.0 0.5000000000 0.0000000000 0.0000000000  Biso 1.0 Ge
Ge10 1.0 0.0000000000 0.5000000000 0.0000000000  Biso 1.0 Ge
Ge11 1.0 0.0000000000 0.0000000000 0.5000000000  Biso 1.0 Ge
Ge12 1.0 0.5000000000 0.5000000000 0.5000000000  Biso 1.0 Ge
Mn13 1.0 0.0000000000 0.0000000000 0.0000000000  Biso 1.0 Mn
Mn14 1.0 0.5000000000 0.5000000000 0.0000000000  Biso 1.0 Mn
Mn15 1.0 0.5000000000 0.0000000000 0.5000000000  Biso 1.0 Mn
Mn16 1.0 0.0000000000 0.5000000000 0.5000000000  Biso 1.0 Mn
